dynaflow/src/test/resources/output.xiidm
<?xml version="1.0" encoding="UTF-8"?>
<iidm:network xmlns:iidm="http://www.powsybl.org/schema/iidm/1_18" id="test" caseDate="2023-02-17T04:49:40.620+01:00" forecastDistance="0" sourceFormat="test" minimumValidationLevel="STEADY_STATE_HYPOTHESIS">
    <iidm:substation id="substation">
        <iidm:voltageLevel id="vl1" nominalV="400.0" topologyKind="NODE_BREAKER">
            <iidm:nodeBreakerTopology>
                <iidm:busbarSection id="Busbar" node="0"/>
                <iidm:switch id="d1" kind="DISCONNECTOR" open="false" node1="0" node2="1"/>
                <iidm:switch id="d2" kind="DISCONNECTOR" open="false" node1="0" node2="2"/>
                <iidm:switch id="d3" kind="DISCONNECTOR" open="false" node1="0" node2="3"/>
            </iidm:nodeBreakerTopology>
            <iidm:load id="load1" loadType="UNDEFINED" p0="10.0" q0="5.0" node="1"/>
            <iidm:load id="load2" loadType="UNDEFINED" p0="12.0" q0="1.0" node="2"/>
        </iidm:voltageLevel>
        <iidm:voltageLevel id="vl2" nominalV="400.0" topologyKind="BUS_BREAKER">
            <iidm:busBreakerTopology>
                <iidm:bus id="b1"/>
                <iidm:bus id="b2"/>
                <iidm:switch id="c" kind="BREAKER" retained="true" open="false" bus1="b1" bus2="b2"/>
            </iidm:busBreakerTopology>
            <iidm:generator id="g1" energySource="OTHER" minP="0.0" maxP="150.0" voltageRegulatorOn="true" targetP="101.0" targetV="390.0" bus="b1" connectableBus="b1">
                <iidm:minMaxReactiveLimits minQ="-1.7976931348623157E308" maxQ="1.7976931348623157E308"/>
            </iidm:generator>
            <iidm:load id="load3" loadType="UNDEFINED" p0="77.0" q0="1.0" bus="b2" connectableBus="b2"/>
        </iidm:voltageLevel>
    </iidm:substation>
    <iidm:line id="l1" r="1.0" x="3.0" node1="3" voltageLevelId1="vl1" bus2="b1" connectableBus2="b1" voltageLevelId2="vl2"/>
</iidm:network>
